

Patrimônio:
017.010264


Unidade:
17 - Faculdade de Medicina de Ribeirão Preto


Incorporação:
25/11/2010 - Processo: 04.1.1251.17.7


Responsável:
2088110-1 João Santana da Silva 


Material:
151858 - SISTEMA DE ESTOCAGEM COM NITROGÊNIO                                                                 


Bem:

Origem:
Doação              
Situação:
Ativo          


Utilização:
Individual


Localização física 
RBI                  - Bioquimica e Imunologia


Complemento:



 
 


Marca:
THERMO
Modelo:
CYOPLUS 1
Tipo:
TUBOS DE 2 ML


Doc.:
termo de doação
Num.:
D-00802/04-PROC.01/09999-3
Data:
14/06/2004


Garantia:
 


Fornecedor:
 


Identif:
SISTEMA DE ESTOCAGEM NITROGÊNIO LÍQUIDO


Assinatura Digital:


