

Patrimônio:
003.046567


Unidade:
3 - Escola Politécnica


Incorporação:
26/03/2010 - Processo: 09.1.2606.3.8


Responsável:
51602-1 Aldo Tonso 


Material:
27812 - ESPECTROFOTÔMETRO                                                                                   


Bem:

Origem:
Doação              
Situação:
Ativo          


Utilização:
Coletivo


Localização física 
PQI                  - DEPTO. DE ENGENHARIA QUIMICA


Complemento:



 
 


Marca:
THERMO
Modelo:
GENESYS
Tipo:
ESPECTROFOTOMETRO


Doc.:
termo de doação
Num.:
07/59776-7
Data:
11/09/2009


Garantia:
 


Fornecedor:
 


Identif:



Assinatura Digital:


