

Patrimônio:
042.018170


Unidade:
42 - Instituto de Ciências Biomédicas


Incorporação:
16/09/2010 - Processo: 10.1.1061.42.0


Responsável:
60752-1 Marinilce Fagundes dos Santos 


Material:
151700 - MICROMANÔMETRO                                                                                      


Bem:

Origem:
Doação              
Situação:
Ativo          


Utilização:
Individual


Localização física 
BMC                  - DEPTO. DE BIOLOGIA CELULAR E DESENVOLVIMENTO


Complemento:



 
 


Marca:
THERMO
Modelo:

Tipo:



Doc.:
termo de doação
Num.:
1827 - FAPESP 06/57508-2
Data:
26/08/2010


Garantia:
 


Fornecedor:
 


Identif:
MANôMETRO


Assinatura Digital:


