

Patrimônio:
042.024457


Unidade:
42 - Instituto de Ciências Biomédicas


Incorporação:
11/12/2014 - Processo: 14.1.711.42.5


Responsável:
55158-1 Carlos Frederico Martins Menck 


Material:
274470 - INCUBADORA                                                                                          


Bem:
6193218
Origem:
Sispa Compra        
Situação:
Ativo          


Utilização:
Individual


Localização física 
BMM                  - DEPTO. DE MICROBIOLOGIA


Complemento:



 
 


Marca:
THERMO
Modelo:
3429, SERIE 8000
Tipo:
INCUBADORA DE CO2


Doc.:
nota fiscal
Num.:
2942
Data:
28/08/2014


Garantia:
 


Fornecedor:
SOTELAB SOCIEDADE TECNICA DE LABORATORIO LTDA


Identif:



Assinatura Digital:


