

Patrimônio:
042.022837


Unidade:
42 - Instituto de Ciências Biomédicas


Incorporação:
01/07/2013 - Processo: 13.1.380.42.8


Responsável:
6627386-1 Silvia Beatriz Boscardin 


Material:
202754 - INCUBADORA DE CO2                                                                                   


Bem:

Origem:
Doação              
Situação:
Ativo          


Utilização:
Individual


Localização física 
BMP                  - DEPTO. DE PARASITOLOGIA


Complemento:



 
 


Marca:
THERMO
Modelo:

Tipo:



Doc.:
termo de doação
Num.:
432 - FAPESP 09/11869-2
Data:
12/03/2013


Garantia:
 


Fornecedor:
 


Identif:
INCUBADORA DE CO2


Assinatura Digital:


