

Patrimônio:
042.009168


Unidade:
42 - Instituto de Ciências Biomédicas


Incorporação:
04/04/2006 - Processo: 05.1.763.42.6


Responsável:
1970721-1 Silvia Maria Gomes Massironi 


Material:
27812 - ESPECTROFOTÔMETRO                                                                                   


Bem:

Origem:
Doação              
Situação:
Ativo          


Utilização:
Individual


Localização física 
BMI                  - DEPTO. DE IMUNOLOGIA


Complemento:



 
 


Marca:
THERMO
Modelo:
BIOMATE
Tipo:



Doc.:
nota fiscal
Num.:
1004 - FAPESP 03/04531-9
Data:
15/07/2005


Garantia:
 


Fornecedor:
 


Identif:
ESPECTROFOTOMETRO


Assinatura Digital:


