

Patrimônio:
042.014405


Unidade:
42 - Instituto de Ciências Biomédicas


Incorporação:
05/08/2009 - Processo: 08.1.359.42.3


Responsável:
2177888-1 Magnus Ake Gidlund 


Material:
87564 - REFRIGERADOR RECIRCULADOR                                                                           


Bem:

Origem:
Doação              
Situação:
Ativo          


Utilização:
Individual


Localização física 
BMI                  - DEPTO. DE IMUNOLOGIA


Complemento:



 
 


Marca:
THERMO
Modelo:

Tipo:



Doc.:
termo de doação
Num.:
 578 - FAPESP 05/01723-0
Data:
01/04/2008


Garantia:
 


Fornecedor:
 


Identif:
REFRIGERADOR


Assinatura Digital:


