

Patrimônio:
042.010331


Unidade:
42 - Instituto de Ciências Biomédicas


Incorporação:
04/12/2006 - Processo: 02.1.520.42.3


Responsável:
1485640-1 Maria Luiza Morais Barreto de Chaves 


Material:
92720 - RESERVATÓRIO DE NITROGÊNIO                                                                          


Bem:

Origem:
Doação              
Situação:
Ativo          


Utilização:
Individual


Localização física 
BMA                  - DEPTO. DE  ANATOMIA


Complemento:



 
 


Marca:
THERMO
Modelo:
PORTÁTIL
Tipo:



Doc.:
termo de doação
Num.:
371 - FAPESP 99/08184-4
Data:
12/03/2002


Garantia:
 


Fornecedor:
 


Identif:
RESERVATÓRIO DE NITROGÊNIO


Assinatura Digital:


