

Patrimônio:
042.021239


Unidade:
42 - Instituto de Ciências Biomédicas


Incorporação:
16/03/2012 - Processo: 11.1.1567.42.2


Responsável:
156324-1 Antonio Condino Neto 


Material:
198544 - BOTIJÃO CRIOGÊNICO                                                                                  


Bem:

Origem:
Doação              
Situação:
Ativo          


Utilização:
Individual


Localização física 
BMI                  - DEPTO. DE IMUNOLOGIA


Complemento:



 
 


Marca:
THERMO
Modelo:

Tipo:



Doc.:
termo de doação
Num.:
2729 - FAPESP 10/51653-6
Data:
24/11/2011


Garantia:
 


Fornecedor:
 


Identif:
BOTIJÃO CRIOGÊNICO


Assinatura Digital:


