

Patrimônio:
005.015851


Unidade:
5 - Faculdade de Medicina


Incorporação:
05/04/2012 - Processo: 12.1.213.5.9


Responsável:
59002-1 Magda Maria Sales Carneiro Sampaio 


Material:
29564 - CONTAINER PARA CRIOARMAZENAMENTO                                                                    


Bem:

Origem:
Doação              
Situação:
Ativo          


Utilização:
Coletivo


Localização física 
MPE                  - Departamento de Pediatria


Complemento:



 
 


Marca:
THERMO
Modelo:
8144
Tipo:



Doc.:
termo de doação
Num.:
3061/11
Data:
21/12/2011


Garantia:
 


Fornecedor:
 


Identif:



Assinatura Digital:


