

Patrimônio:
005.024911


Unidade:
5 - Faculdade de Medicina


Incorporação:
07/08/2017 - Processo: 17.1.778.5.0


Responsável:
2274921-1 Edmund Chada Baracat 


Material:
249114 - TERMOBLOCO - CONCENTRADOR DE AMOSTRA                                                                


Bem:

Origem:
Doação              
Situação:
Ativo          


Utilização:
Coletivo


Localização física 
MOG-DGNC             - Disciplina de Ginecologia


Complemento:



 
 


Marca:
THERMO
Modelo:
COM 2 BLOCO
Tipo:



Doc.:
termo de doação
Num.:
00472/17
Data:
27/03/2017


Garantia:
 


Fornecedor:
 


Identif:



Assinatura Digital:


