

Patrimônio:
018.036579


Unidade:
18 - Escola de Engenharia de São Carlos


Incorporação:
03/08/2005 - Processo: 05.1.1628.18.2


Responsável:
91531-1 Marco Antonio Penalva Reali 


Material:
23043 - PHMETRO                                                                                             


Bem:

Origem:
Doação              
Situação:
Baixado        


Utilização:
Coletivo


Localização física 
SHS                  - DEPARTAMENTO DE HIDRÁULICA E SANEAMENTO


Complemento:



 
 


Marca:
THERMO
Modelo:
410A
Tipo:
C/ELETRODO COMB. DE PH


Doc.:
termo de doação
Num.:
00464/2005
Data:
02/05/2005


Garantia:
 


Fornecedor:
 


Identif:
063868


Assinatura Digital:


