

Patrimônio:
041.022143


Unidade:
41 - Instituto de Biociências


Incorporação:
01/12/2010 - Processo: 09.1.694.41.0


Responsável:
1557160-1 Marcos Silveira Buckeridge 


Material:
103144 - CONTAINER                                                                                           


Bem:

Origem:
Doação              
Situação:
Ativo          


Utilização:
Coletivo


Localização física 
BOT                  - Departamento de Botânica


Complemento:
fapesp 08/57908-6


 
 


Marca:
THERMO SCIENTIFIC
Modelo:
THERMO 20 EM ALUMINIO
Tipo:
PARA  ARMAZENAMENTO NITROGÊNIO LIQUIDO


Doc.:
termo de doação
Num.:
TD 2500/10 DI 10/1314982-5
Data:
22/10/2010


Garantia:
 


Fornecedor:
 


Identif:
SERIE B2010D0881


Assinatura Digital:


