

Patrimônio:
017.012199


Unidade:
17 - Faculdade de Medicina de Ribeirão Preto


Incorporação:
18/05/2010 - Processo: 06.1.1248.17.8


Responsável:
2088110-1 João Santana da Silva 


Material:
136654 - SISTEMA EVAPORADOR                                                                                  


Bem:

Origem:
Doação              
Situação:
Inservível     


Utilização:
Coletivo


Localização física 
RBI                  - Bioquimica e Imunologia


Complemento:



 
 


Marca:
THERMO
Modelo:
SPEEDVAC DNA BÁSICO
Tipo:



Doc.:
termo de doação
Num.:
D-975/2006-PROC.04/09992-7
Data:
07/06/2006


Garantia:
 


Fornecedor:
 


Identif:
115V, 60HZ COMPLETO C/ROTOR, 24 TUBOS, M.MICR.


Assinatura Digital:


